   74
scf done: -3233.233325
 C     1.104117     4.498034     0.225597
 C    -0.052578     5.246613     0.503467
 C    -1.314263     4.649875     0.374738
 C    -1.397508     3.309134    -0.029674
 C    -0.241746     2.544566    -0.319594
 C     1.015467     3.152675    -0.178547
 H     1.937319     2.594041    -0.373310
 N    -2.451944     1.310070    -0.669468
 C    -2.698522     2.604537    -0.210098
 O    -3.813713     3.086253     0.004355
 C    -3.424630     0.367020    -0.956545
 C    -4.819627     0.519103    -0.957508
 C    -5.646353    -0.587037    -1.271277
 C    -5.134691    -1.843651    -1.573832
 C    -3.724670    -2.034450    -1.596268
 C    -3.070244    -3.262766    -1.887812
 C    -1.683141    -3.326587    -1.896217
 C    -0.932092    -2.162196    -1.618274
 N    -1.516731    -0.999498    -1.331277
 C    -2.884320    -0.915922    -1.303810
 H     0.163004    -2.160344    -1.632346
 H    -1.161394    -4.261721    -2.119998
 H    -3.671277    -4.152588    -2.104806
 H    -5.796449    -2.686254    -1.797117
 H    -6.731969    -0.439366    -1.261256
 H    -5.243373     1.490507    -0.701933
 N    -0.274993     0.279844     0.949291
 C     0.946818    -0.035324     1.366048
 N     2.076713    -0.199761     0.688282
 C     2.055481    -0.070537    -0.644050
 O     1.052701     0.237158    -1.394550
 O     1.009744    -0.239882     2.707187
 C    -0.249793     0.184975     3.278568
 H    -0.088590     1.153606     3.782059
 H    -0.566355    -0.571588     4.011714
 C    -1.223519     0.313104     2.072693
 C    -2.251019    -0.798627     1.969150
 C    -3.622908    -0.515320     2.052751
 C    -4.568427    -1.545596     1.945215
 C    -4.147292    -2.867204     1.750122
 C    -2.776298    -3.158149     1.664989
 C    -1.834219    -2.129115     1.774831
 H    -0.765173    -2.355888     1.694216
 H    -2.442055    -4.188608     1.505081
 H    -4.886112    -3.669679     1.653359
 H    -5.636156    -1.310143     1.993442
 H    -3.953109     0.522615     2.171944
 H    -1.738981     1.287050     2.095557
 H    -2.240540     5.199993     0.575257
 H     0.034702     6.291423     0.820497
 H     2.090741     4.964898     0.330387
Co    -0.666862     0.751413    -0.790260
 N     3.229467    -0.294476    -1.317154
 H     3.198515    -0.006228    -2.294710
 C     4.500268    -0.584079    -0.738095
 C     4.717404    -1.796772    -0.046434
 C     5.545421     0.350231    -0.925514
 C     5.999313    -2.036502     0.477412
 C     6.811485     0.057497    -0.397316
 C     7.057923    -1.127420     0.318288
 H     6.176654    -2.975638     1.015550
 H     7.623224     0.781211    -0.539602
 C     3.618866    -2.815324     0.124247
 H     2.950125    -2.517241     0.951011
 H     2.997616    -2.882087    -0.786581
 H     4.037397    -3.811550     0.342178
 C     5.291274     1.640193    -1.670797
 H     5.064459     1.463121    -2.740374
 H     4.428379     2.183656    -1.245161
 H     6.172737     2.299481    -1.626648
 C     8.417442    -1.402001     0.920818
 H     9.226847    -0.982091     0.299378
 H     8.502168    -0.943581     1.924721
 H     8.594987    -2.484518     1.037205
