   65
scf done: -3438.245197
 C     1.533826     4.279922    -0.078337
 C     0.403541     5.109025     0.022376
 C    -0.872889     4.556165    -0.139979
 C    -0.995074     3.182222    -0.400205
 C     0.131672     2.331290    -0.514161
 C     1.403106     2.903960    -0.342130
 H     2.307561     2.291162    -0.411239
 N    -2.117460     1.161019    -0.837743
 C    -2.317031     2.526855    -0.577996
 O    -3.412940     3.083621    -0.506076
 C    -3.141440     0.243420    -1.024555
 C    -4.522758     0.470084    -1.107821
 C    -5.404606    -0.623391    -1.293197
 C    -4.956344    -1.934890    -1.387443
 C    -3.559620    -2.203610    -1.317181
 C    -2.974579    -3.496932    -1.387726
 C    -1.595495    -3.635582    -1.306106
 C    -0.786405    -2.485863    -1.166691
 N    -1.304749    -1.259018    -1.096708
 C    -2.665775    -1.101683    -1.153173
 H     0.306934    -2.545065    -1.123736
 H    -1.121835    -4.620473    -1.355250
 H    -3.620180    -4.374498    -1.502583
 H    -5.658098    -2.765138    -1.515016
 H    -6.479045    -0.417883    -1.352111
 H    -4.896714     1.489775    -1.015402
 N     0.282072     0.116437     0.924757
 C     1.521032    -0.026064     1.374736
 N     2.679543    -0.239405     0.749728
 C     2.787527    -0.330185    -0.565841
 O     1.623492     0.042105     2.726282
 C     0.302998     0.232913     3.277044
 H     0.328781     1.107220     3.945412
 H     0.037562    -0.667204     3.856470
 C    -0.627133     0.431526     2.048133
 C    -1.857352    -0.451681     2.065738
 C    -3.141677     0.110458     2.113985
 C    -4.277413    -0.712839     2.126941
 C    -4.135770    -2.105445     2.090734
 C    -2.852878    -2.675616     2.045581
 C    -1.721957    -1.852774     2.035089
 H    -0.722015    -2.297615     1.977398
 H    -2.735940    -3.763625     2.007817
 H    -5.022731    -2.747261     2.087204
 H    -5.274234    -0.261551     2.145653
 H    -3.256535     1.199998     2.109817
 H    -0.937982     1.487484     1.953231
 H    -1.782932     5.162932    -0.072198
 H     0.522554     6.178267     0.227726
 H     2.534742     4.708194     0.052034
Co    -0.359576     0.501397    -0.789286
 N     4.019996    -0.579001    -1.110934
 H     4.011551    -0.598358    -2.130857
 C     5.280656    -0.827081    -0.530268
 C     6.342340    -1.080193    -1.428304
 C     5.531572    -0.833538     0.858492
 C     7.630251    -1.336507    -0.951265
 H     6.148220    -1.074117    -2.507778
 C     6.829063    -1.093837     1.317830
 H     4.711791    -0.632865     1.547656
 C     7.883539    -1.346003     0.428760
 H     8.438889    -1.529716    -1.663998
 H     7.013498    -1.095991     2.397585
 H     8.891719    -1.546223     0.805098
 S     1.519575    -0.185998    -1.757244
