   72
scf done: -3269.100541
 C     2.725550     3.613746    -0.326530
 C     1.852919     4.712024    -0.167771
 C     0.469037     4.499164    -0.231161
 C    -0.034492     3.210105    -0.444648
 C     0.838348     2.101840    -0.603300
 C     2.215897     2.309444    -0.536769
 H     2.945417     1.499997    -0.637334
 N    -1.646447     1.553054    -0.844501
 C    -1.482857     2.915425    -0.563279
 O    -2.402163     3.730189    -0.442847
 C    -2.863586     0.916281    -1.012456
 C    -4.145479     1.485421    -1.071222
 C    -5.272467     0.647010    -1.230515
 C    -5.172200    -0.738014    -1.318067
 C    -3.889728    -1.353857    -1.276851
 C    -3.658943    -2.767826    -1.343439
 C    -2.340635    -3.220196    -1.317258
 C    -1.267881    -2.310431    -1.217376
 N    -1.465091    -0.996361    -1.128275
 C    -2.745814    -0.508652    -1.147776
 H    -0.225040    -2.644478    -1.206581
 H    -2.125270    -4.292298    -1.370524
 H    -6.071392    -1.350959    -1.420020
 H    -6.263089     1.113492    -1.271835
 H    -4.247078     2.566704    -0.978111
 N     0.116903     0.171139     0.986384
 C     1.190976    -0.416704     1.496772
 N     2.228132    -0.996267     0.898693
 C     2.253600    -1.061864    -0.435794
 O     1.367409    -0.620634    -1.264415
 O     1.194752    -0.429543     2.854383
 C     0.112753     0.420042     3.304143
 H     0.548495     1.368375     3.662845
 H    -0.405389    -0.092016     4.128297
 C    -0.786052     0.631460     2.052926
 C    -2.083450    -0.156510     2.069649
 C    -3.321335     0.505579     2.070236
 C    -4.517731    -0.225774     2.085904
 C    -4.484083    -1.626325     2.098618
 C    -3.249907    -2.295397     2.093527
 C    -2.056634    -1.563610     2.079932
 H    -1.094881    -2.088217     2.063129
 H    -3.217648    -3.390011     2.094241
 H    -5.418748    -2.197389     2.102438
 H    -5.476655     0.301316     2.068717
 H    -3.347331     1.600092     2.029620
 H    -1.008809     1.701658     1.914136
 H    -0.235552     5.331953    -0.125966
 H     2.241053     5.719905    -0.001700
Co    -0.119680     0.470939    -0.818240
 N     3.322483    -1.669835    -1.050770
 H     3.246204    -1.633798    -2.066562
 C     4.468431    -2.318739    -0.550222
 C     4.761372    -2.461350     0.822374
 C     5.362291    -2.848956    -1.507236
 C     5.931511    -3.127786     1.208051
 H     4.070409    -2.046024     1.556431
 C     6.525763    -3.510217    -1.103802
 H     5.137126    -2.736974    -2.574853
 C     6.819767    -3.655783     0.260117
 H     6.148970    -3.231808     2.276735
 H     7.205178    -3.912858    -1.862625
 H     7.730464    -4.172956     0.578623
 C    -4.812904    -3.730664    -1.421838
 H    -5.437837    -3.532103    -2.311226
 H    -4.461455    -4.773351    -1.469140
 H    -5.467191    -3.621996    -0.537408
 O     4.085969     3.709468    -0.285188
 C     4.670667     4.984562    -0.059880
 H     4.363046     5.404931     0.917156
 H     5.758981     4.824173    -0.061579
 H     4.403572     5.700645    -0.860971
