   75
scf done: -3217.188881
 C    -3.635780     0.612160     3.423391
 C    -2.964689     0.011552     4.502380
 C    -1.873123    -0.833199     4.258829
 C    -1.469662    -1.063218     2.934983
 C    -2.141429    -0.471653     1.838878
 C    -3.226223     0.379970     2.096732
 H    -3.761757     0.872947     1.279114
 N    -0.214102    -2.023823     1.197485
 C    -0.329768    -1.957785     2.586920
 O     0.392807    -2.547627     3.393948
 C     0.741240    -2.757290     0.513602
 C     1.695279    -3.647667     1.029118
 C     2.598454    -4.295676     0.151841
 C     2.592336    -4.081159    -1.221279
 C     1.632040    -3.194203    -1.783476
 C     1.518916    -2.885392    -3.166546
 C     0.531729    -2.013059    -3.604758
 C    -0.357164    -1.441924    -2.666496
 N    -0.271421    -1.704210    -1.362459
 C     0.703304    -2.553307    -0.905679
 H    -1.158882    -0.762729    -2.972723
 H     0.426221    -1.763741    -4.664623
 H     2.216602    -3.341784    -3.877164
 H     3.310756    -4.583138    -1.876721
 H     3.334113    -4.983369     0.583380
 H     1.730374    -3.815487     2.105661
 N    -0.487025     0.707168     0.229399
 C    -0.993684     1.819014    -0.275692
 N    -2.090518     2.013102    -1.018223
 C    -2.866880     0.974236    -1.319085
 O    -2.697715    -0.242765    -0.938917
 O    -0.244324     2.917153    -0.005816
 C     0.765640     2.541319     0.968096
 H     0.377877     2.844402     1.957714
 C     0.790563     0.967061     0.904812
 C     1.950970     0.351531     0.151641
 C     2.890344    -0.442537     0.826160
 C     3.966152    -1.013959     0.132188
 C     4.109448    -0.792850    -1.243444
 C     3.172254    -0.000539    -1.924988
 C     2.098561     0.566797    -1.230727
 H     1.362437     1.173660    -1.767783
 H     3.276323     0.170743    -3.001368
 H     4.944642    -1.246010    -1.787711
 H     4.682166    -1.647183     0.665253
 H     2.761809    -0.638172     1.896511
 H     0.759850     0.560266     1.927488
 H    -1.326321    -1.325532     5.070875
 H    -3.294700     0.205742     5.528566
 H    -4.487369     1.275540     3.615433
Co    -1.337437    -0.922961     0.172417
 C    -4.097977     1.217286    -2.202826
 C    -4.182683     2.686795    -2.644910
 H    -5.078185     2.832216    -3.275429
 H    -4.246529     3.358266    -1.774019
 H    -3.290545     2.979544    -3.222172
 C    -5.351173     0.831575    -1.379927
 H    -6.256672     0.937851    -2.002983
 H    -5.281364    -0.210658    -1.027987
 H    -5.461792     1.490991    -0.501223
 C    -3.989795     0.291211    -3.437511
 H    -4.883585     0.407707    -4.075174
 H    -3.103642     0.549029    -4.045531
 H    -3.911296    -0.763981    -3.128341
 C     2.074351     3.230251     0.682963
 C     2.295589     3.918087    -0.520571
 C     3.111932     3.138358     1.628702
 C     3.544113     4.502073    -0.777547
 H     1.481421     3.995581    -1.246199
 C     4.359566     3.716245     1.367315
 H     2.945806     2.604413     2.571505
 C     4.579462     4.399291     0.161322
 H     3.707343     5.039617    -1.717728
 H     5.162577     3.634357     2.107299
 H     5.555133     4.852759    -0.042773
