   71
scf done: -3193.934713
 C     1.007621     4.546816    -0.170640
 C    -0.183762     5.275783    -0.014533
 C    -1.418332     4.621815    -0.126335
 C    -1.439410     3.243980    -0.389167
 C    -0.247635     2.497274    -0.551122
 C     0.981902     3.163805    -0.432484
 H     1.930344     2.626624    -0.539150
 N    -2.398639     1.154295    -0.868642
 C    -2.707172     2.478113    -0.551801
 O    -3.846011     2.937371    -0.434485
 C    -3.327638     0.154150    -1.102664
 C    -4.724166     0.258888    -1.190778
 C    -5.501804    -0.900543    -1.428440
 C    -4.939776    -2.164024    -1.569788
 C    -3.525873    -2.309033    -1.499403
 C    -2.823050    -3.538728    -1.624674
 C    -1.436357    -3.556893    -1.555434
 C    -0.733899    -2.345449    -1.365321
 N    -1.364778    -1.178962    -1.233294
 C    -2.733810    -1.138865    -1.284528
 H     0.359752    -2.309618    -1.323448
 H    -0.877526    -4.492432    -1.651356
 H    -3.386580    -4.465882    -1.776063
 H    -5.564638    -3.046902    -1.736589
 H    -6.589978    -0.788652    -1.489929
 H    -5.188156     1.236692    -1.060283
 N    -0.283724     0.383561     0.957963
 C     0.921884     0.166318     1.468594
 N     2.094843    -0.022748     0.871390
 C     2.150031    -0.029049    -0.464210
 O     1.171906     0.134716    -1.292644
 O     0.922424     0.114869     2.824726
 C    -0.383271     0.537724     3.284266
 H    -0.287060     1.555834     3.698463
 H    -0.712000    -0.158267     4.070210
 C    -1.292226     0.506317     2.022055
 C    -2.284151    -0.641219     1.986466
 C    -3.665247    -0.392936     1.971455
 C    -4.576990    -1.457788     1.928633
 C    -4.112490    -2.778895     1.897741
 C    -2.731937    -3.034765     1.912035
 C    -1.823616    -1.971088     1.956707
 H    -0.746414    -2.172056     1.953025
 H    -2.363492    -4.065445     1.880378
 H    -4.824523    -3.609581     1.851682
 H    -5.651461    -1.251883     1.898554
 H    -4.027645     0.641049     1.961429
 H    -1.832165     1.460827     1.912337
 H    -2.370187     5.154571    -0.021743
 H    -0.144549     6.350584     0.192787
 H     1.972851     5.059432    -0.082780
Co    -0.594485     0.648273    -0.840424
 N     3.359410    -0.237974    -1.079868
 H     3.281322    -0.195231    -2.095212
 C     4.653667    -0.497307    -0.581731
 C     4.969564    -0.584553     0.784445
 C     5.669767    -0.673797    -1.548193
 C     6.295038    -0.848500     1.180509
 H     4.177285    -0.442958     1.520822
 C     6.990682    -0.935642    -1.167452
 H     5.416548    -0.603270    -2.613753
 C     7.290982    -1.021845     0.207114
 H     8.321483    -1.226918     0.521207
 C     6.623358    -0.937552     2.654952
 H     6.389535     0.012010     3.169760
 H     6.025651    -1.726087     3.146972
 H     7.690269    -1.162528     2.817848
 C     8.076583    -1.119460    -2.204400
 H     8.862582    -0.349837    -2.095691
 H     8.568774    -2.102832    -2.094317
 H     7.673936    -1.051780    -3.228572
