   69
scf done: -3138.601170
 C     1.206916     4.566902    -0.218297
 C     0.002675     5.279119    -0.352976
 C    -1.192253     4.586794    -0.592468
 C    -1.162300     3.187593    -0.690652
 C     0.044118     2.459167    -0.560852
 C     1.232852     3.162662    -0.314940
 H     2.185822     2.636373    -0.195807
 N    -2.013515     1.031623    -1.071057
 C    -2.379917     2.374725    -0.969516
 O    -3.525264     2.814749    -1.096740
 C    -2.883460    -0.013522    -1.333856
 C    -4.246271     0.043684    -1.663118
 C    -4.966554    -1.155068    -1.885815
 C    -4.380972    -2.411299    -1.781130
 C    -2.997660    -2.510329    -1.462213
 C    -2.276570    -3.728102    -1.325460
 C    -0.920089    -3.703267    -1.030194
 C    -0.265618    -2.460590    -0.872369
 N    -0.917057    -1.302934    -0.981288
 C    -2.259268    -1.303231    -1.259820
 H     0.806804    -2.395552    -0.660760
 H    -0.346776    -4.628901    -0.924540
 H    -2.801868    -4.680397    -1.457139
 H    -4.963470    -3.323596    -1.942936
 H    -6.029836    -1.079192    -2.138982
 H    -4.731336     1.017771    -1.728836
 N    -0.207671     0.526286     1.152482
 C     0.897250     0.358647     1.866141
 N     2.141359     0.075984     1.477958
 C     2.410094    -0.062979     0.175810
 O     1.574909     0.081107    -0.796071
 O     0.688693     0.468526     3.202133
 C    -0.663037     0.947672     3.400814
 H    -0.608872     2.008158     3.700483
 H    -1.122901     0.352890     4.203840
 C    -1.367798     0.766597     2.026158
 C    -2.353521    -0.384923     1.964111
 C    -3.710016    -0.151521     1.691041
 C    -4.613434    -1.221901     1.619806
 C    -4.164702    -2.533907     1.817647
 C    -2.808713    -2.774830     2.091339
 C    -1.909016    -1.705596     2.164996
 H    -0.848752    -1.897449     2.364442
 H    -2.451233    -3.799150     2.239564
 H    -4.868030    -3.370316     1.748287
 H    -5.665523    -1.029773     1.387547
 H    -4.054610     0.870985     1.500595
 H    -1.871090     1.698798     1.722707
 H    -2.150361     5.104830    -0.712816
 H     0.001023     6.371379    -0.271080
 H     2.140507     5.110270    -0.030385
Co    -0.233092     0.580501    -0.686743
 C     3.800548    -0.423708    -0.197377
 C     6.098441    -0.952685     0.473208
 C     4.778568    -0.613082     0.798969
 H     4.476551    -0.483985     1.842847
 C     4.157437    -0.578100    -1.549975
 H     3.398898    -0.426224    -2.322708
 C     6.454723    -1.109501    -0.893561
 C     7.127250    -1.146968     1.563035
 H     7.973733    -0.444272     1.449148
 H     6.683144    -0.987826     2.558572
 H     7.556030    -2.166218     1.537519
 C     7.867722    -1.473319    -1.280280
 H     8.589866    -0.716285    -0.921361
 H     8.172554    -2.436760    -0.830487
 H     7.974705    -1.556715    -2.373802
 C     5.471139    -0.918001    -1.882655
 H     5.748624    -1.036934    -2.936398
