   78
scf done: -3256.482623
 C     2.777958     2.286013     0.647472
 C     2.210060     3.570830     0.693802
 C     0.864721     3.749196     0.343123
 C     0.106068     2.632989    -0.041146
 C     0.667764     1.334875    -0.093787
 C     2.015678     1.168739     0.257868
 H     2.495813     0.186143     0.234525
 N    -1.775808     1.469743    -0.829572
 C    -1.322220     2.735182    -0.452003
 O    -1.996534     3.768201    -0.463759
 C    -3.053433     1.184562    -1.280484
 C    -4.097506     2.075368    -1.573463
 C    -5.345240     1.574488    -2.017610
 C    -5.596161     0.215697    -2.168952
 C    -4.559019    -0.718693    -1.892883
 C    -4.682553    -2.130832    -2.002880
 C    -3.595687    -2.947508    -1.720767
 C    -2.369465    -2.362239    -1.332211
 N    -2.224667    -1.043001    -1.210769
 C    -3.288862    -0.218126    -1.468691
 H    -1.482488    -2.967666    -1.118384
 H    -3.670003    -4.035990    -1.800735
 H    -5.640631    -2.563312    -2.311387
 H    -6.574711    -0.146903    -2.498677
 H    -6.141998     2.293875    -2.236913
 H    -3.930376     3.144192    -1.438908
 N    -0.793999    -0.355838     1.221373
 C    -0.043066    -1.231614     1.870034
 N     0.877798    -2.090465     1.411258
 C     1.137263    -2.119714     0.105687
 O     0.590430    -1.411161    -0.815315
 O    -0.277062    -1.255601     3.203645
 C    -1.156307    -0.148747     3.519933
 H    -0.561944     0.618461     4.044090
 H    -1.953147    -0.522382     4.180031
 C    -1.688758     0.358538     2.148393
 C    -3.144774     0.033873     1.875003
 C    -4.080634     1.059906     1.674328
 C    -5.423120     0.752880     1.408987
 C    -5.837374    -0.583228     1.338566
 C    -4.906108    -1.615112     1.538167
 C    -3.567724    -1.307212     1.806219
 H    -2.839732    -2.114137     1.947340
 H    -5.223186    -2.661372     1.476749
 H    -6.882888    -0.822255     1.117726
 H    -6.140605     1.560856     1.235549
 H    -3.749933     2.104313     1.692742
 H    -1.528471     1.444170     2.047177
 H     0.386134     4.734943     0.354384
 H     2.818523     4.427835     1.002511
 H     3.828246     2.142407     0.923189
Co    -0.618633     0.014093    -0.574903
 C     2.266024    -3.030232    -0.348000
 H     2.354901    -3.862296     0.366921
 H     2.033462    -3.419104    -1.351650
 C     3.542272    -2.205282    -0.385847
 C     4.225917    -1.891330     0.804600
 C     4.010775    -1.650222    -1.585973
 C     5.352101    -1.063280     0.781051
 H     3.855638    -2.286664     1.756573
 C     5.142578    -0.822250    -1.603897
 H     3.481268    -1.860934    -2.521665
 C     5.841486    -0.511144    -0.423149
 H     5.860266    -0.842453     1.726174
 H     5.474278    -0.415019    -2.562358
 C     7.093564     0.384043    -0.405334
 C     6.820754     1.632208     0.469379
 H     6.539702     1.352475     1.499259
 H     7.723403     2.267395     0.523740
 H     6.000649     2.234250     0.041658
 C     8.279825    -0.413550     0.190604
 H     8.489735    -1.312341    -0.415127
 H     9.190255     0.212581     0.210702
 H     8.070829    -0.741012     1.223371
 C     7.487868     0.859642    -1.817171
 H     7.717679     0.009629    -2.483259
 H     6.686596     1.459484    -2.282927
 H     8.389893     1.493450    -1.756458
