   68
scf done: -3154.628318
 C     1.813272     4.324556    -0.253686
 C     0.697832     5.068542     0.166557
 C    -0.564210     4.459472     0.227482
 C    -0.686410     3.113131    -0.144372
 C     0.430342     2.347831    -0.553065
 C     1.688592     2.965597    -0.602413
 H     2.580675     2.408600    -0.908950
 N    -1.832043     1.164558    -0.800127
 C    -1.988423     2.385660    -0.138426
 O    -3.014092     2.779404     0.425747
 C    -2.827078     0.226864    -1.063610
 C    -4.194971     0.444880    -1.343099
 C    -5.025689    -0.699394    -1.526791
 C    -4.562733    -2.005848    -1.513987
 C    -3.168472    -2.242629    -1.378017
 C    -2.545198    -3.516782    -1.448844
 C    -1.162878    -3.619876    -1.366834
 C    -0.392735    -2.446191    -1.216648
 N    -0.953679    -1.240461    -1.124898
 C    -2.317460    -1.111783    -1.181812
 H     0.701145    -2.471671    -1.175237
 H    -0.661203    -4.589997    -1.426863
 H    -3.166068    -4.409843    -1.579184
 H    -5.246660    -2.848422    -1.654891
 H    -6.091854    -0.516642    -1.704626
 N     0.260724     0.249308     0.979532
 C     1.462319    -0.038698     1.463519
 N     2.616302    -0.270362     0.842323
 C     2.649400    -0.275814    -0.491958
 O     1.661833    -0.096856    -1.306046
 O     1.488484    -0.114759     2.816853
 C     0.213088     0.356145     3.313298
 H     0.368368     1.351551     3.762599
 H    -0.138564    -0.350263     4.079872
 C    -0.718896     0.417138     2.069534
 C    -1.800656    -0.646274     2.035131
 C    -3.154766    -0.278968     1.969566
 C    -4.152829    -1.263996     1.931667
 C    -3.803978    -2.620472     1.958035
 C    -2.451584    -2.993337     2.018995
 C    -1.455664    -2.010452     2.057087
 H    -0.400011    -2.303722     2.092436
 H    -2.173258    -4.052379     2.030438
 H    -4.583492    -3.388765     1.919576
 H    -5.204329    -0.967814     1.863357
 H    -3.422829     0.781552     1.909519
 H    -1.188960     1.410732     1.999212
 H    -1.457242     5.007427     0.548404
 H     0.816430     6.121000     0.445829
 H     2.798139     4.804135    -0.300670
Co    -0.059493     0.528981    -0.822492
 N     3.845398    -0.508343    -1.128162
 H     3.750093    -0.470430    -2.142288
 C     5.138483    -0.801098    -0.650018
 C     5.475513    -0.889000     0.716913
 C     6.138961    -1.011604    -1.624885
 C     6.795710    -1.185458     1.079530
 H     4.699989    -0.722088     1.464913
 C     7.451483    -1.305287    -1.244328
 H     5.878665    -0.942071    -2.688132
 C     7.790569    -1.395338     0.113892
 H     7.046170    -1.250777     2.144007
 H     8.211768    -1.464184    -2.016455
 H     8.817760    -1.624975     0.414497
 C    -4.796555     1.812463    -1.538240
 H    -4.932947     2.341243    -0.580884
 H    -4.124411     2.446991    -2.142483
 H    -5.764082     1.729215    -2.060869
