   75
scf done: -3346.294005
 C    -2.072708    -2.384113     3.797567
 C    -0.946717    -2.734807     4.561907
 C     0.317833    -2.774997     3.958759
 C     0.435125    -2.457309     2.597448
 C    -0.690205    -2.103718     1.815027
 C    -1.950259    -2.064488     2.431976
 H    -2.848271    -1.787663     1.869473
 N     1.516413    -2.201115     0.527729
 C     1.736513    -2.501345     1.872818
 O     2.831195    -2.766739     2.375492
 C     2.499360    -2.137847    -0.445862
 C     3.861703    -2.455887    -0.336989
 C     4.708626    -2.311887    -1.462782
 C     4.249516    -1.854332    -2.692362
 C     2.871810    -1.532995    -2.845681
 C     2.272523    -1.056270    -4.043598
 C     0.910553    -0.788340    -4.080940
 C     0.130396    -0.992721    -2.920751
 N     0.664946    -1.428307    -1.780097
 C     2.008150    -1.693711    -1.718301
 H    -0.948666    -0.806523    -2.906260
 H     0.430702    -0.423308    -4.993719
 H     2.895791    -0.904193    -4.931528
 H     4.927865    -1.738696    -3.543322
 H     5.768414    -2.564625    -1.347258
 H     4.246716    -2.799952     0.623118
 N    -0.206966     0.098439     0.534199
 C    -1.287280     0.866613     0.520562
 N    -2.515959     0.626373     0.073015
 C    -2.779834    -0.553842    -0.497271
 O    -1.969329    -1.543381    -0.673767
 O    -1.065258     2.101834     1.041854
 C     0.228676     2.076832     1.699291
 H     0.039390     1.863722     2.767336
 C     0.948995     0.827674     1.067447
 C     1.968610     1.131355    -0.010992
 C     3.330404     0.878270     0.213195
 C     4.279188     1.164538    -0.778245
 C     3.870879     1.709980    -2.002289
 C     2.510237     1.964171    -2.234129
 C     1.564937     1.674406    -1.244033
 H     0.502771     1.859700    -1.433663
 H     2.184843     2.384379    -3.191420
 H     4.610523     1.927200    -2.780138
 H     5.336429     0.945722    -0.598626
 H     3.645659     0.429586     1.161614
 H     1.427284     0.244059     1.868970
 H     1.219226    -3.053841     4.516023
 H    -1.060092    -2.976155     5.624259
 H    -3.061414    -2.353260     4.270458
Co    -0.209745    -1.672743     0.024365
 N    -4.046011    -0.790796    -0.976452
 H    -4.135868    -1.729395    -1.363793
 C    -5.209816     0.002448    -1.030718
 C    -5.293339     1.320727    -0.535677
 C    -6.348535    -0.588328    -1.622371
 C    -6.503838     2.017600    -0.642388
 H    -4.412942     1.770553    -0.076124
 C    -7.548388     0.122085    -1.719636
 H    -6.285674    -1.613891    -2.006207
 C    -7.635294     1.433696    -1.229787
 H    -6.557365     3.040350    -0.253527
 H    -8.419245    -0.355316    -2.181289
 H    -8.573901     1.991950    -1.304323
 C     0.943810     3.392019     1.544010
 C     0.531797     4.345948     0.599931
 C     2.085163     3.641775     2.327516
 C     1.257738     5.534225     0.438005
 H    -0.362923     4.150850     0.002617
 C     2.813170     4.825442     2.159072
 H     2.409887     2.902667     3.069172
 C     2.401239     5.775220     1.211854
 H     0.927564     6.274738    -0.298301
 H     3.703021     5.008604     2.770446
 H     2.969146     6.702410     1.081271
