   64
scf done: -3043.955290
 C     2.320720     4.162810    -0.138480
 C     1.253704     5.052091    -0.354784
 C    -0.021943     4.550399    -0.646939
 C    -0.210089     3.161673    -0.716115
 C     0.857097     2.256386    -0.504331
 C     2.127953     2.769959    -0.205487
 H     2.974554     2.100967    -0.018887
 N    -1.373946     1.159330    -1.103225
 C    -1.526150     2.544496    -1.047482
 O    -2.578082     3.158411    -1.246050
 C    -2.381594     0.258143    -1.402012
 C    -3.699310     0.520225    -1.807682
 C    -4.585950    -0.556011    -2.054218
 C    -4.211649    -1.886012    -1.900860
 C    -2.879884    -2.193164    -1.504439
 C    -2.366459    -3.505104    -1.310666
 C    -1.040585    -3.685524    -0.939870
 C    -0.208232    -2.556783    -0.763106
 N    -0.664322    -1.315333    -0.925227
 C    -1.972895    -1.111895    -1.277331
 H     0.848795    -2.650989    -0.493310
 H    -0.626684    -4.686951    -0.789465
 H    -3.026775    -4.366681    -1.458657
 H    -4.921335    -2.699148    -2.082535
 H    -5.609350    -0.320625    -2.366926
 H    -4.021016     1.556566    -1.912813
 N     0.194505     0.438655     1.221701
 C     1.205871     0.135198     2.018462
 C     2.810126    -0.584232     0.310352
 O     1.996278    -0.339564    -0.671950
 O     0.928903     0.313897     3.334907
 C    -0.343644     1.007126     3.422360
 H    -0.140839     2.058644     3.688233
 H    -0.939937     0.525768     4.211262
 C    -0.972873     0.874932     2.008960
 C    -2.109205    -0.126290     1.912331
 C    -3.402463     0.292237     1.563748
 C    -4.446224    -0.639135     1.464208
 C    -4.202036    -1.996413     1.709460
 C    -2.910201    -2.422227     2.057720
 C    -1.870132    -1.491484     2.159010
 H    -0.858921    -1.827918     2.413615
 H    -2.711914    -3.483364     2.241231
 H    -5.014362    -2.724972     1.617775
 H    -5.446526    -0.304341     1.172565
 H    -3.585524     1.348356     1.336620
 H    -1.315417     1.856832     1.645238
 H    -0.878004     5.209321    -0.830935
 H     1.421614     6.132879    -0.295033
 H     3.317717     4.557641     0.090639
Co     0.296066     0.442693    -0.616884
 C     2.479329    -0.354850     1.649217
 H     3.196363    -0.522928     2.451488
 C     4.140152    -1.124345    -0.088744
 C     4.505688    -1.081247    -1.451266
 C     5.043743    -1.682116     0.840734
 C     5.745724    -1.574322    -1.871356
 H     3.798350    -0.649769    -2.164468
 C     6.282461    -2.176333     0.417756
 H     4.773729    -1.745625     1.898836
 C     6.639142    -2.122885    -0.938864
 H     6.018313    -1.529074    -2.931156
 H     6.972000    -2.609861     1.149822
 H     7.609758    -2.509760    -1.267018
