   75
scf done: -3403.373393
 C     0.362945     4.676286    -0.296761
 C    -0.867703     5.314492    -0.529135
 C    -2.011056     4.547203    -0.791172
 C    -1.903794     3.148542    -0.813859
 C    -0.669807     2.494037    -0.585768
 C     0.466429     3.272482    -0.317810
 H     1.437264     2.804549    -0.122997
 N    -2.621212     0.933336    -1.122365
 C    -3.061670     2.257651    -1.109523
 O    -4.220075     2.628104    -1.316140
 C    -3.420327    -0.169666    -1.372918
 C    -4.766530    -0.204171    -1.767520
 C    -5.410140    -1.450445    -1.962146
 C    -4.764240    -2.665792    -1.767806
 C    -3.394761    -2.672508    -1.380787
 C    -2.617053    -3.840266    -1.149644
 C    -1.280051    -3.725843    -0.792990
 C    -0.701571    -2.442476    -0.666720
 N    -1.408111    -1.329597    -0.863816
 C    -2.732851    -1.417831    -1.204931
 H     0.354032    -2.307180    -0.408605
 H    -0.664077    -4.612038    -0.614336
 H    -3.083589    -4.825578    -1.257689
 H    -5.288869    -3.615692    -1.910105
 H    -6.462446    -1.446088    -2.267257
 H    -5.298885     0.737263    -1.904601
 N    -0.907913     0.635524     1.209653
 C     0.167241     0.561825     1.983789
 N     1.441313     0.330468     1.672708
 C     1.785523     0.140907     0.392566
 O     0.992302     0.193792    -0.624432
 O    -0.117305     0.721444     3.301913
 C    -1.499886     1.136327     3.408562
 H    -1.516563     2.212034     3.653983
 H    -1.969905     0.558657     4.218234
 C    -2.122336     0.849343     2.012535
 C    -3.038139    -0.359189     1.961783
 C    -4.389743    -0.218466     1.612005
 C    -5.227733    -1.341531     1.552564
 C    -4.717692    -2.614126     1.839313
 C    -3.366093    -2.762486     2.189805
 C    -2.531870    -1.640652     2.251153
 H    -1.474037    -1.760670     2.510605
 H    -2.960437    -3.755984     2.407619
 H    -5.369148    -3.492263     1.779540
 H    -6.275618    -1.222162     1.260228
 H    -4.780312     0.771994     1.353145
 H    -2.661609     1.735157     1.639739
 H    -2.986983     5.005887    -0.986165
 H    -0.930082     6.407803    -0.505143
 H     1.255893     5.278439    -0.091058
Co    -0.841275     0.600081    -0.629257
 C     3.204171    -0.166704     0.108619
 C     5.463547    -0.573126     0.905711
 C     4.967879    -0.644970    -1.491612
 C     3.623126    -0.360819    -1.222263
 H     2.885020    -0.263951    -2.019487
 C     4.120795    -0.270307     1.170354
 H     3.744197    -0.124490     2.183859
 C     5.909802    -0.748043    -0.430154
 O     5.481397    -0.834592    -2.738291
 O     6.410632    -0.740334     1.879584
 O     7.183288    -1.063044    -0.780090
 C     6.016832    -0.538356     3.231149
 H     5.643168     0.490365     3.394266
 H     5.233340    -1.258353     3.534326
 H     6.920658    -0.702888     3.836152
 C     8.280536    -0.375369    -0.167078
 H     8.528049    -0.803040     0.817580
 H     9.128536    -0.498684    -0.858957
 H     8.054686     0.700381    -0.050876
 C     4.588402    -0.742498    -3.838985
 H     3.786698    -1.503727    -3.775817
 H     4.125612     0.261324    -3.904433
 H     5.196254    -0.925032    -4.737377
