   71
scf done: -3788.973691
 C    -0.322766     4.700996    -0.025898
 C    -1.563782     5.333592     0.159318
 C    -2.747661     4.596748     0.017974
 C    -2.668595     3.233510    -0.303170
 C    -1.426036     2.583795    -0.495398
 C    -0.248360     3.332045    -0.346512
 H     0.736878     2.871078    -0.474683
 N    -3.470567     1.099903    -0.874024
 C    -3.875956     2.383877    -0.500989
 O    -5.045488     2.750477    -0.368190
 C    -4.324665     0.043872    -1.149309
 C    -5.724846     0.050199    -1.236903
 C    -6.415962    -1.152287    -1.523916
 C    -5.762978    -2.364155    -1.715204
 C    -4.342230    -2.408294    -1.646572
 C    -3.552123    -3.577307    -1.820702
 C    -2.167720    -3.497465    -1.747995
 C    -1.555958    -2.247061    -1.505512
 N    -2.269440    -1.135350    -1.327692
 C    -3.637923    -1.193261    -1.381533
 H    -0.467694    -2.135445    -1.458698
 H    -1.542093    -4.384853    -1.880977
 H    -4.046508    -4.535847    -2.012347
 H    -6.321523    -3.282590    -1.920405
 H    -7.509271    -1.117471    -1.584358
 H    -6.259426     0.985292    -1.069009
 N    -1.295905     0.413217     0.924919
 C    -0.079989     0.254666     1.425457
 N     1.102509     0.168419     0.812734
 C     1.146090     0.228572    -0.517683
 O     0.166797     0.370450    -1.340968
 O    -0.063222     0.146835     2.774310
 C    -1.394841     0.450777     3.258515
 H    -1.367040     1.450023     3.724606
 H    -1.666709    -0.307025     4.007836
 C    -2.305863     0.417353     1.997445
 C    -3.217483    -0.791716     1.908845
 C    -4.611970    -0.635605     1.898490
 C    -5.450276    -1.756430     1.809467
 C    -4.898326    -3.041130     1.726768
 C    -3.503766    -3.204701     1.735832
 C    -2.668704    -2.085482     1.827261
 H    -1.580518    -2.214874     1.821733
 H    -3.067183    -4.206348     1.665090
 H    -5.553069    -3.915049     1.645635
 H    -6.536067    -1.621801     1.785118
 H    -5.043041     0.371205     1.930192
 H    -2.908545     1.337567     1.931631
 H    -3.735406     5.054234     0.143387
 H    -1.602710     6.398464     0.412235
 H     0.602582     5.278315     0.085232
Co    -1.637634     0.726599    -0.861128
 N     2.374164     0.123529    -1.143843
 H     2.295440     0.207649    -2.156592
 C     3.667735    -0.075410    -0.642332
 C     3.971434    -0.192063     0.729537
 C     4.712710    -0.159525    -1.587621
 C     5.300443    -0.396922     1.122956
 H     3.165829    -0.117086     1.460774
 C     6.032151    -0.355138    -1.170038
 H     4.493262    -0.075299    -2.656742
 C     6.343391    -0.479830     0.191581
 H     7.373487    -0.637170     0.517711
 C     5.596499    -0.588203     2.593368
 C     7.141703    -0.377126    -2.194500
 F     6.697122    -0.773728    -3.412972
 F     8.142370    -1.213648    -1.832499
 F     7.693474     0.851820    -2.357402
 F     6.875376    -0.258007     2.896733
 F     4.784503     0.160384     3.374249
 F     5.423280    -1.882001     2.967563
