   68
scf done: -3154.635721
 C     1.742246     4.504198    -0.393638
 C     0.609041     5.329090    -0.291253
 C    -0.671270     4.764228    -0.370223
 C    -0.795996     3.378196    -0.547069
 C     0.336207     2.535434    -0.655005
 C     1.612301     3.113438    -0.569444
 H     2.517474     2.500426    -0.635985
 N    -1.908443     1.339363    -0.898190
 C    -2.117425     2.700203    -0.668455
 O    -3.218877     3.249424    -0.588291
 C    -2.909668     0.396512    -1.067359
 C    -4.295598     0.594465    -1.161592
 C    -5.152545    -0.521557    -1.322604
 C    -4.681023    -1.828486    -1.379634
 C    -3.280714    -2.067844    -1.297289
 C    -2.666153    -3.349480    -1.330077
 C    -1.282907    -3.485332    -1.250772
 C    -0.508255    -2.298104    -1.150710
 N    -1.050203    -1.084000    -1.106832
 C    -2.411759    -0.944408    -1.162502
 H     0.586448    -2.335741    -1.108512
 H    -3.299147    -4.240621    -1.415187
 H    -5.367845    -2.673841    -1.486924
 H    -6.230618    -0.338564    -1.391866
 H    -4.689683     1.608752    -1.096179
 N     0.149080     0.521313     0.978086
 C     1.333633     0.237381     1.503250
 N     2.487088    -0.078363     0.919809
 C     2.537819    -0.162596    -0.412721
 O     1.577249     0.035216    -1.252516
 O     1.333060     0.261235     2.860062
 C     0.066894     0.816006     3.290161
 H     0.245143     1.849546     3.632994
 H    -0.310779     0.203233     4.121896
 C    -0.846840     0.770157     2.032527
 C    -1.909808    -0.312284     2.063418
 C    -3.272202     0.022806     2.030175
 C    -4.250778    -0.981634     2.051344
 C    -3.872395    -2.329273     2.102562
 C    -2.511175    -2.672031     2.135005
 C    -1.535968    -1.668411     2.116379
 H    -0.473967    -1.938231     2.129095
 H    -2.210205    -3.724487     2.168443
 H    -4.636428    -3.113712     2.106038
 H    -5.309750    -0.709125     2.006757
 H    -3.567422     1.075402     1.957271
 H    -1.324991     1.749085     1.866856
 H    -1.580263     5.372743    -0.304971
 H     0.728923     6.408740    -0.150891
 H     2.743279     4.947132    -0.331117
Co    -0.147536     0.702993    -0.832929
 N     3.726645    -0.504936    -1.012620
 H     3.650948    -0.510820    -2.029103
 C     4.993335    -0.842697    -0.495811
 C     5.302759    -0.879975     0.880047
 C     5.996268    -1.158060    -1.439542
 C     6.597930    -1.230906     1.282168
 H     4.526267    -0.631438     1.603955
 C     7.283496    -1.505316    -1.019767
 H     5.757926    -1.127602    -2.509751
 C     7.594836    -1.545174     0.347479
 H     6.826933    -1.255727     2.353186
 H     8.046025    -1.745313    -1.768379
 H     8.602256    -1.816426     0.678743
 C    -0.596691    -4.830101    -1.257993
 H    -1.319158    -5.645119    -1.424887
 H     0.172268    -4.883076    -2.049277
 H    -0.086358    -5.017341    -0.295278
