   40
scf done:  -956.697745
 O     0.676199     1.150530     0.637209
 C     1.250708     0.026614     0.282349
 N     0.639147    -1.106767     0.112374
 C    -0.702589    -1.133075     0.325718
 N    -1.467048    -0.156933     0.677162
 C    -2.815195    -0.682973     0.864510
 C    -3.896400     0.140096     0.210836
 C    -3.648799     0.846831    -0.961174
 C    -4.668557     1.552492    -1.582648
 C    -5.947538     1.555474    -1.041734
 C    -6.200676     0.853404     0.127838
 C    -5.177581     0.152574     0.751179
 H    -5.374046    -0.385120     1.671446
 H    -7.192554     0.856942     0.559521
 H    -6.741201     2.107736    -1.526393
 H    -4.463667     2.105109    -2.489841
 H    -2.648755     0.851542    -1.375139
 H    -3.024275    -0.736250     1.936675
 C    -2.699355    -2.105166     0.263513
 H    -3.132028    -2.881956     0.887962
 H    -3.132237    -2.150371    -0.736726
 O    -1.289586    -2.331596     0.157160
 C     2.711238     0.106846     0.068824
 C     3.416405    -1.033386    -0.315530
 C     4.784139    -0.972052    -0.522310
 C     5.432729     0.250282    -0.336584
 C     4.750232     1.396330     0.047654
 C     3.374814     1.312897     0.248330
 H     2.814171     2.189355     0.544342
 C     5.470739     2.699218     0.260906
 H     5.531714     2.937330     1.324016
 H     4.946170     3.520157    -0.227523
 H     6.484922     2.658624    -0.132418
 H     6.504069     0.305312    -0.499803
 C     5.566085    -2.186654    -0.940664
 H     6.060570    -2.019802    -1.898451
 H     4.918644    -3.055532    -1.039511
 H     6.341232    -2.420986    -0.209985
 H     2.874730    -1.959531    -0.450176
 H    -0.311749     0.960693     0.760971
