   58
scf done: -1192.548300
 O     0.738525     1.181177    -0.576324
 C     0.157787     0.021509    -0.384687
 N     0.769193    -1.124781    -0.348967
 C     2.114729    -1.123618    -0.534746
 N     2.884835    -0.110135    -0.737199
 C     4.237248    -0.607730    -0.966687
 C     5.303391     0.120182    -0.187493
 C     5.038559     0.633689     1.077924
 C     6.043402     1.250196     1.808452
 C     7.324827     1.356624     1.283660
 C     7.595029     0.848008     0.021593
 C     6.586497     0.235931    -0.709968
 H     6.796080    -0.150074    -1.700723
 H     8.588731     0.933536    -0.397224
 H     8.106928     1.839631     1.853584
 H     5.825314     1.652674     2.788655
 H     4.036374     0.559621     1.480204
 H     4.467684    -0.517347    -2.031930
 C     4.111795    -2.097465    -0.563613
 H     4.557428    -2.784205    -1.278001
 H     4.525836    -2.276803     0.429537
 O     2.700596    -2.334579    -0.515301
 C    -1.308201     0.074747    -0.200000
 C    -1.971653     1.302054    -0.248658
 C    -3.345526     1.360079    -0.080678
 C    -4.032352     0.159586     0.137380
 C    -3.395317    -1.074017     0.191218
 C    -2.012204    -1.098159     0.017631
 H    -1.457763    -2.025736     0.048044
 C    -4.142506    -2.385399     0.429654
 C    -3.602562    -3.049509     1.703907
 H    -2.537304    -3.263905     1.622426
 H    -4.123978    -3.991370     1.884058
 H    -3.752476    -2.402275     2.569141
 C    -3.914387    -3.321139    -0.765500
 H    -4.290195    -2.870618    -1.685169
 H    -2.856325    -3.541302    -0.904695
 H    -4.437880    -4.265560    -0.605958
 C    -5.646885    -2.174462     0.596511
 H    -6.091477    -1.727428    -0.294080
 H    -6.130874    -3.137503     0.762575
 H    -5.871043    -1.536920     1.453231
 H    -5.104518     0.202086     0.268728
 C    -4.128288     2.671834    -0.125852
 C    -3.218430     3.875264    -0.370301
 H    -2.694690     3.795093    -1.323770
 H    -3.819597     4.784901    -0.394141
 H    -2.476587     3.984753     0.421877
 C    -5.161071     2.609474    -1.259807
 H    -5.869727     1.794305    -1.113557
 H    -5.726008     3.542412    -1.302956
 H    -4.668473     2.460906    -2.221580
 C    -4.853579     2.879085     1.211069
 H    -5.555299     2.070961     1.417473
 H    -5.415253     3.814757     1.190501
 H    -4.138989     2.924878     2.033868
 H    -1.388811     2.193495    -0.419985
 H     1.729897     1.008082    -0.700034
