   40
scf done:  -956.699268
 O     0.526616     1.247314     0.778676
 C     1.158963     0.183950     0.343646
 N     0.603151    -0.957757     0.066416
 C    -0.738866    -1.061747     0.248412
 N    -1.554061    -0.154175     0.664439
 C    -2.878425    -0.754906     0.780717
 C    -3.988350     0.071157     0.181354
 C    -5.279073    -0.035209     0.687816
 C    -6.325826     0.668361     0.108557
 C    -6.087479     1.492552    -0.981864
 C    -4.799584     1.608352    -1.487899
 C    -3.755721     0.899849    -0.911062
 H    -2.749249     0.996648    -1.297087
 H    -4.606649     2.255962    -2.332739
 H    -6.899938     2.047185    -1.431404
 H    -7.324968     0.578292     0.513281
 H    -5.464633    -0.668705     1.547424
 H    -3.100158    -0.911708     1.840239
 C    -2.687464    -2.112206     0.060922
 H    -3.096756    -2.959123     0.604726
 H    -3.098681    -2.087187    -0.949165
 O    -1.267191    -2.266970    -0.032230
 C     2.614808     0.348423     0.169994
 C     3.385923    -0.718859    -0.286171
 C     4.754934    -0.592969    -0.457618
 C     5.371411     0.634315    -0.165336
 C     4.594073     1.694023     0.289208
 C     3.225515     1.562701     0.459017
 H     2.630031     2.391720     0.812835
 H     5.071917     2.639314     0.513949
 C     6.853209     0.796307    -0.343350
 H     7.146491     0.612031    -1.378772
 H     7.174172     1.799493    -0.071174
 H     7.403018     0.081712     0.272280
 C     5.572189    -1.754008    -0.949837
 H     6.087828    -1.507954    -1.880147
 H     6.339913    -2.031901    -0.225066
 H     4.943537    -2.623375    -1.129223
 H     2.890679    -1.655295    -0.505566
 H    -0.453202     1.003509     0.865688
