   46
scf done: -1035.311756
 O    -2.896139    -1.359170    -0.204466
 C    -3.211335    -0.096116    -0.038786
 N    -2.429367     0.810476     0.456929
 C    -1.182947     0.419573     0.848372
 N    -0.661039    -0.753313     0.783681
 C     0.650758    -0.688366     1.418197
 C     1.717131    -1.490842     0.725052
 C     1.720212    -1.641216    -0.657429
 C     2.755589    -2.315912    -1.285393
 C     3.799076    -2.847883    -0.538288
 C     3.796606    -2.710333     0.841970
 C     2.756354    -2.037434     1.468409
 H     2.752134    -1.934770     2.547695
 H     4.599770    -3.131348     1.431827
 H     4.606276    -3.373649    -1.030155
 H     2.750058    -2.425685    -2.361545
 H     0.907941    -1.222090    -1.236860
 H     0.554888    -1.059321     2.443065
 C     0.910971     0.859117     1.474118
 C     1.781822     1.390348     0.365281
 C     1.235715     1.888988    -0.810416
 C     2.065624     2.293839    -1.848327
 C     3.443176     2.204442    -1.718139
 C     3.992999     1.717592    -0.538861
 C     3.165326     1.316632     0.496940
 H     3.596468     0.929011     1.412327
 H     5.066702     1.651162    -0.426532
 H     4.087289     2.519372    -2.527943
 H     1.631670     2.682720    -2.759760
 H     0.161749     1.973830    -0.911947
 H     1.314322     1.150515     2.441799
 O    -0.414390     1.395237     1.369565
 C    -4.613747     0.252007    -0.485940
 C    -4.739085    -0.095167    -1.975678
 H    -4.545617    -1.152114    -2.150071
 H    -5.749629     0.135944    -2.314182
 H    -4.038302     0.491189    -2.571718
 C    -5.595676    -0.604135     0.325939
 H    -5.512591    -0.385534     1.391462
 H    -6.614706    -0.377591     0.010582
 H    -5.410403    -1.665760     0.172374
 C    -4.904787     1.731933    -0.266394
 H    -5.921763     1.948237    -0.596096
 H    -4.212702     2.356682    -0.828689
 H    -4.811435     1.999090     0.784905
 H    -1.952590    -1.490619     0.132810
