   49
scf done: -1074.615699
 O    -0.399958    -1.579206    -0.276459
 C    -0.016731    -1.294571     0.942627
 N    -0.581526    -0.447627     1.743458
 C    -1.665932     0.229753     1.266796
 N    -2.216446     0.121631     0.108531
 C    -3.289929     1.107695     0.026105
 C    -4.588802     0.564141    -0.513082
 C    -4.959545    -0.757896    -0.291474
 C    -6.183783    -1.227648    -0.744040
 C    -7.052190    -0.379679    -1.418689
 C    -6.687747     0.939919    -1.643812
 C    -5.459890     1.406396    -1.195198
 H    -5.171290     2.434021    -1.382984
 H    -7.355510     1.604848    -2.174964
 H    -8.005471    -0.747991    -1.772792
 H    -6.459418    -2.259751    -0.573343
 H    -4.276593    -1.419851     0.225132
 H    -2.963210     1.925155    -0.622601
 C    -3.405202     1.591794     1.492284
 H    -3.451517     2.672350     1.595531
 H    -4.257662     1.134889     1.996553
 O    -2.205116     1.120653     2.116362
 C     1.222078    -2.015473     1.384660
 C     2.443385    -1.308323     0.839496
 C     3.077754    -1.748358    -0.311061
 C     4.184424    -1.074902    -0.816947
 C     4.687006     0.060958    -0.190829
 C     4.033874     0.498658     0.965010
 C     2.933494    -0.168376     1.471919
 H     2.440448     0.197095     2.364639
 H     4.391484     1.379402     1.483276
 C     5.900396     0.829357    -0.710574
 C     6.994851     0.840285     0.365639
 H     6.650372     1.318889     1.282140
 H     7.303927    -0.176563     0.611188
 H     7.867889     1.388537     0.006675
 C     5.488738     2.273278    -1.029818
 H     4.709295     2.291776    -1.792617
 H     5.108615     2.785941    -0.146428
 H     6.348242     2.834318    -1.401478
 C     6.479850     0.203518    -1.978800
 H     5.750939     0.194048    -2.790390
 H     7.340704     0.785643    -2.309745
 H     6.815668    -0.819587    -1.803787
 H     4.650880    -1.455034    -1.714324
 H     2.705370    -2.626642    -0.823865
 H     1.238574    -2.022959     2.471693
 H     1.182554    -3.037500     1.010402
 H    -1.200599    -0.997174    -0.487671
