   36
scf done: -1256.372593
 C     1.343417     1.006259     0.385308
 N     0.886883    -0.205261     0.459025
 C    -0.400654    -0.482590     0.765302
 N    -1.356871     0.301213     1.120690
 C    -2.577283    -0.486257     1.240970
 C    -3.596111    -0.158659     0.169883
 C    -4.938080    -0.451551     0.395880
 C    -5.888266    -0.221398    -0.587457
 C    -5.504558     0.310278    -1.811501
 C    -4.169647     0.609701    -2.041333
 C    -3.219248     0.376721    -1.055955
 H    -2.180622     0.623348    -1.234146
 H    -3.865104     1.030137    -2.990461
 H    -6.243654     0.495625    -2.579076
 H    -6.928294    -0.449963    -0.396615
 H    -5.241551    -0.857928     1.354038
 H    -3.035538    -0.312990     2.215285
 C    -2.045953    -1.940591     1.144989
 H    -2.600256    -2.553012     0.438180
 H    -2.014034    -2.431751     2.117405
 O    -0.705201    -1.794115     0.672042
 N     2.644659     1.220454     0.073045
 C     3.690469     0.327140    -0.231342
 C     4.931918     0.913828    -0.490939
 C     6.029016     0.134198    -0.804571
 C     5.907690    -1.247869    -0.865174
 C     4.675943    -1.827631    -0.607495
 C     3.563025    -1.059547    -0.290447
 H     2.612857    -1.522481    -0.091493
 H     4.566847    -2.903035    -0.651219
 H     6.763011    -1.861886    -1.109955
 H     6.980391     0.609303    -1.001722
 H     5.032022     1.991961    -0.445015
 H     2.914093     2.191122     0.054236
 S     0.458630     2.503675     0.638879
 H    -0.699215     1.773061     0.968291
