   42
scf done: -1012.065059
 O    -0.063342    -1.891278    -1.134700
 C     0.705764    -0.899834    -0.739940
 N     0.322920     0.334146    -0.546332
 C    -0.982359     0.602220    -0.771379
 N    -1.904980    -0.207408    -1.171852
 C    -3.172475     0.511172    -1.190929
 C    -4.149054     0.004451    -0.152453
 C    -5.510849    -0.018836    -0.430141
 C    -6.423449    -0.423576     0.534835
 C    -5.978512    -0.811184     1.790135
 C    -4.618850    -0.793720     2.073556
 C    -3.709642    -0.389228     1.107646
 H    -2.649298    -0.387561     1.327163
 H    -4.265687    -1.100329     3.049071
 H    -6.686387    -1.130701     2.542906
 H    -7.480071    -0.441895     0.303473
 H    -5.859904     0.275940    -1.412835
 H    -3.637498     0.420795    -2.173217
 C    -2.727349     1.977096    -0.936608
 H    -2.772127     2.584098    -1.840294
 H    -3.286483     2.459792    -0.138939
 O    -1.357861     1.872115    -0.534777
 N     1.982016    -1.294700    -0.545992
 C     3.123678    -0.584532    -0.130313
 C     3.131148     0.763847     0.194816
 C     4.322910     1.369003     0.597718
 C     5.486688     0.621089     0.669823
 C     5.491733    -0.735947     0.345466
 C     4.307091    -1.326414    -0.052330
 H     4.293300    -2.380074    -0.308711
 C     6.764892    -1.531715     0.430419
 H     7.159066    -1.523674     1.447320
 H     6.607037    -2.567717     0.136102
 H     7.530924    -1.106689    -0.219120
 H     6.409848     1.095512     0.982592
 C     4.317510     2.831630     0.949031
 H     3.640097     3.026318     1.781241
 H     5.311496     3.174557     1.230111
 H     3.973730     3.430594     0.105143
 H     2.221326     1.338047     0.134713
 H     2.122411    -2.273272    -0.740547
 H    -1.001501    -1.502063    -1.252843
