   35
scf done:  -820.331417
 O    -0.127233    -1.984179    -0.149144
 C     0.633386    -0.912412    -0.102807
 N     0.213260     0.323157    -0.117507
 C    -1.125873     0.500318    -0.192299
 N    -2.047989    -0.401033    -0.230716
 C    -3.336763     0.268424    -0.374102
 C    -4.391759    -0.236876     0.605701
 C    -4.621382    -1.732999     0.435550
 H    -3.702363    -2.293679     0.596892
 H    -4.979244    -1.949671    -0.573950
 H    -5.372653    -2.090841     1.140047
 C    -5.692516     0.538070     0.415927
 H    -6.452027     0.198643     1.119895
 H    -5.558194     1.610850     0.563724
 H    -6.081219     0.383485    -0.593555
 H    -4.007826    -0.051186     1.614412
 H    -3.712475     0.097487    -1.390394
 C    -2.964734     1.751705    -0.169389
 H    -3.363363     2.420648    -0.927528
 H    -3.261325     2.106727     0.820471
 O    -1.534800     1.781367    -0.242540
 N     1.946721    -1.224967    -0.034801
 C     3.092386    -0.412624     0.030437
 C     4.315593    -1.079789     0.120494
 C     5.500675    -0.370597     0.187367
 C     5.485432     1.017538     0.165867
 C     4.269372     1.676460     0.076299
 C     3.069988     0.980066     0.007844
 H     2.130484     1.500664    -0.061317
 H     4.242593     2.757822     0.058198
 H     6.409643     1.575750     0.218318
 H     6.437705    -0.906267     0.256985
 H     4.331947    -2.163110     0.138299
 H     2.112490    -2.218710    -0.026110
 H    -1.094161    -1.645930    -0.202704
