   46
scf done: -1164.485400
 O    -1.699436    -2.257139    -0.468748
 C    -2.295062    -1.140437    -0.112922
 N    -1.736166    -0.144217     0.521429
 C    -0.432500    -0.294205     0.843450
 N     0.346964    -1.288621     0.584021
 C     1.626886    -1.028950     1.228867
 C     2.827137    -1.443427     0.422645
 C     2.818656    -1.378638    -0.966438
 C     3.961398    -1.686732    -1.688225
 C     5.125231    -2.063051    -1.029572
 C     5.137281    -2.139838     0.355427
 C     3.990155    -1.834535     1.075315
 H     3.998358    -1.899971     2.157525
 H     6.036148    -2.443024     0.875464
 H     6.016045    -2.302279    -1.594549
 H     3.945393    -1.630811    -2.768444
 H     1.911522    -1.080400    -1.475575
 H     1.654110    -1.565308     2.182600
 C     1.530616     0.508446     1.531820
 C     2.208116     1.391626     0.516291
 C     3.574915     1.628731     0.628114
 C     4.242354     2.366281    -0.336019
 C     3.545518     2.881727    -1.421699
 C     2.180934     2.660650    -1.529913
 C     1.512419     1.918432    -0.564436
 H     0.445209     1.759948    -0.647741
 H     1.630588     3.068283    -2.367305
 H     4.064221     3.459050    -2.175052
 H     5.305744     2.539613    -0.240819
 H     4.122409     1.219988     1.469110
 H     1.899078     0.732101     2.531008
 O     0.114869     0.732576     1.523880
 N    -3.593018    -1.117108    -0.484161
 C    -4.590334    -0.139207    -0.316455
 C    -4.404085     1.065544     0.357508
 C    -5.466903     1.953204     0.460401
 C    -6.705772     1.666365    -0.090767
 C    -6.884724     0.463180    -0.760086
 C    -5.836902    -0.431838    -0.872550
 H    -5.980439    -1.369363    -1.396529
 H    -7.842793     0.217976    -1.197936
 H    -7.522263     2.369016    -0.000759
 H    -5.313623     2.886592     0.985374
 H    -3.445816     1.297538     0.789243
 H    -3.875285    -1.951598    -0.973397
 H    -0.731981    -2.188077    -0.145653
